/*--------------------------------*- C++ -*----------------------------------*\
| =========                 |                                                 |
| \\      /  F ield         | OpenFOAM: The Open Source CFD Toolbox           |
|  \\    /   O peration     | Version:  2.3.0                                 |
|   \\  /    A nd           | Web:      www.OpenFOAM.org                      |
|    \\/     M anipulation  |                                                 |
\*---------------------------------------------------------------------------*/
FoamFile
{
    version     2.0;
    format      ascii;
    class       dictionary;
    location    "system";
    object      setFieldsDict;
}
// * * * * * * * * * * * * * * * * * * * * * * * * * * * * * * * * * * * * * //

#include "initialConditions"

defaultFieldValues
(
	volScalarFieldValue tau_y_field 0
);

regions
(
	boxToCell
	{
		box (0 0 -1) (1e-1 1e-3 1);
		fieldValues
		(
			volScalarFieldValue tau_y_field $yield_str_kin
		);
	}
);
